
**** 06/01/17 09:23:14 ******* PSpice Lite (March 2016) ******* ID# 10813 ****

 ** Profile: "SCHEMATIC1-1"  [ C:\Users\Cristi\Desktop\LAB ASCN 1\1-pspicefiles\schematic1\1.sim ] 


 ****     CIRCUIT DESCRIPTION


******************************************************************************




** Creating circuit file "1.cir" 
** WARNING: THIS AUTOMATICALLY GENERATED FILE MAY BE OVERWRITTEN BY SUBSEQUENT SIMULATIONS

*Libraries: 
* Profile Libraries :
.INC "C:\Users\Cristi\Desktop\LAB ASCN 1\1-pspicefiles\schematic1\1\1_profile.inc" 
* Local Libraries :
* From [PSPICE NETLIST] section of C:\Users\Cristi\AppData\Roaming\SPB_Data\cdssetup\OrCAD_PSpice\17.2.0\PSpice.ini file:

**** INCLUDING 1_profile.inc ****
.STMLIB ".\1.stl" 

**** RESUMING 1.cir ****
.lib "nomd.lib" 

*Analysis directives: 
.TRAN  0 16 0 
.OPTIONS ADVCONV
.PROBE64 V(alias(*)) I(alias(*)) W(alias(*)) D(alias(*)) NOISE(alias(*)) 
.INC "..\SCHEMATIC1.net" 



**** INCLUDING SCHEMATIC1.net ****
* source 1
.EXTERNAL OUTPUT F1
X_U1A         N15765 N15765 N14845 $G_DPWR $G_DGND 74LS00 PARAMS:
+ IO_LEVEL=0 MNTYMXDLY=0
X_U1B         N15769 N15769 N14849 $G_DPWR $G_DGND 74LS00 PARAMS:
+ IO_LEVEL=0 MNTYMXDLY=0
X_U1C         N15780 N15780 N14853 $G_DPWR $G_DGND 74LS00 PARAMS:
+ IO_LEVEL=0 MNTYMXDLY=0
X_U1D         N15761 N15761 N14841 $G_DPWR $G_DGND 74LS00 PARAMS:
+ IO_LEVEL=0 MNTYMXDLY=0
X_U5A         N14697 N14797 N14817 F1 $G_DPWR $G_DGND 74LS10 PARAMS:
+ IO_LEVEL=0 MNTYMXDLY=0
X_U5B         N14841 N14849 N14853 N14697 $G_DPWR $G_DGND 74LS10 PARAMS:
+ IO_LEVEL=0 MNTYMXDLY=0
X_U5C         N14841 N15765 M_UN0001 N14797 $G_DPWR $G_DGND 74LS10 PARAMS:
+ IO_LEVEL=0 MNTYMXDLY=0
X_U6A         N15761 N14845 N14849 N15780 N14817 $G_DPWR $G_DGND 74LS20 PARAMS:
+ IO_LEVEL=0 MNTYMXDLY=0
U_x2         STIM(1,0) $G_DPWR $G_DGND N15765 IO_STM STIMULUS=x2
U_x1         STIM(1,0) $G_DPWR $G_DGND N15761 IO_STM STIMULUS=x1
U_x4         STIM(1,0) $G_DPWR $G_DGND N15780 IO_STM STIMULUS=x4
U_x3         STIM(1,0) $G_DPWR $G_DGND N15769 IO_STM STIMULUS=x3

**** RESUMING 1.cir ****
.END

* C:\Users\Cristi\Desktop\LAB ASCN 1\1-PSpiceFiles\SCHEMATIC1\1\1.stl written on Wed May 31 14:04:38 2017
* by Stimulus Editor -- Lite Version 17.2.0
;!Stimulus Get
;! x1 Digital x2 Digital x4 Digital x3 Digital
;!Ok
;!Plot Axis_Settings
;!Xrange 0s 70s
;!AutoUniverse
;!XminRes 1ns
;!YminRes 1n
;!Ok
.STIMULUS x1 STIM (1, 1) ;! CLOCKP 16 8 0 0
+   +0s 0
+   +8s 1
+   Repeat Forever
+      +8s 0
+      +8s 1
+   EndRepeat
.STIMULUS x2 STIM (1, 1) ;! CLOCKP 8 4 0 0
+   +0s 0
+   +4s 1
+   Repeat Forever
+      +4s 0
+      +4s 1
+   EndRepeat
.STIMULUS x4 STIM (1, 1) ;! CLOCKP 2 1 0 0
+   +0s 0
+   +1s 1
+   Repeat Forever
+      +1s 0
+      +1s 1
+   EndRepeat
.STIMULUS x3 STIM (1, 1) ;! CLOCKP 4 2 0 0
+   +0s 0
+   +2s 1
+   Repeat Forever
+      +2s 0
+      +2s 1
+   EndRepeat

**** 06/01/17 09:23:14 ******* PSpice Lite (March 2016) ******* ID# 10813 ****

 ** Profile: "SCHEMATIC1-1"  [ C:\Users\Cristi\Desktop\LAB ASCN 1\1-pspicefiles\schematic1\1.sim ] 


 ****     Digital Gate MODEL PARAMETERS


******************************************************************************




               D_LS00          D_LS10          D_LS20          
      TPLHMN    3.600000E-09    3.600000E-09    3.600000E-09 
      TPLHTY    9.000000E-09    9.000000E-09    9.000000E-09 
      TPLHMX   15.000000E-09   15.000000E-09   15.000000E-09 
      TPHLMN    4.000000E-09    4.000000E-09    4.000000E-09 
      TPHLTY   10.000000E-09   10.000000E-09   10.000000E-09 
      TPHLMX   15.000000E-09   15.000000E-09   15.000000E-09 


**** 06/01/17 09:23:14 ******* PSpice Lite (March 2016) ******* ID# 10813 ****

 ** Profile: "SCHEMATIC1-1"  [ C:\Users\Cristi\Desktop\LAB ASCN 1\1-pspicefiles\schematic1\1.sim ] 


 ****     Digital IO  MODEL PARAMETERS


******************************************************************************




               IO_STM          IO_LS           
        DRVL    0             157            
        DRVH    0             108            
       AtoD1                 AtoD_LS         
       AtoD2                 AtoD_LS_NX      
       AtoD3                 AtoD_LS         
       AtoD4                 AtoD_LS_NX      
       DtoA1 DtoA_STM        DtoA_LS         
       DtoA2 DtoA_STM        DtoA_LS         
       DtoA3 DtoA_STM        DtoA_LS         
       DtoA4 DtoA_STM        DtoA_LS         
      TSWHL1                    2.724000E-09 
      TSWHL2                    2.724000E-09 
      TSWHL3                    2.724000E-09 
      TSWHL4                    2.724000E-09 
      TSWLH1                    2.104000E-09 
      TSWLH2                    2.104000E-09 
      TSWLH3                    2.104000E-09 
      TSWLH4                    2.104000E-09 
       TPWRT  100.000000E+03  100.000000E+03 



          JOB CONCLUDED

**** 06/01/17 09:23:14 ******* PSpice Lite (March 2016) ******* ID# 10813 ****

 ** Profile: "SCHEMATIC1-1"  [ C:\Users\Cristi\Desktop\LAB ASCN 1\1-pspicefiles\schematic1\1.sim ] 


 ****     JOB STATISTICS SUMMARY


******************************************************************************



  Total job time                    =         .03
