
**** 06/01/17 09:32:51 ******* PSpice Lite (March 2016) ******* ID# 10813 ****

 ** Profile: "SCHEMATIC1-DMUX"  [ C:\Users\Cristi\Desktop\LAB ASCN 1\dmux-pspicefiles\schematic1\dmux.sim ] 


 ****     CIRCUIT DESCRIPTION


******************************************************************************




** Creating circuit file "DMUX.cir" 
** WARNING: THIS AUTOMATICALLY GENERATED FILE MAY BE OVERWRITTEN BY SUBSEQUENT SIMULATIONS

*Libraries: 
* Profile Libraries :
.INC "C:\Users\Cristi\Desktop\LAB ASCN 1\dmux-pspicefiles\schematic1\DMUX\DMUX_profile.inc" 
* Local Libraries :
* From [PSPICE NETLIST] section of C:\Users\Cristi\AppData\Roaming\SPB_Data\cdssetup\OrCAD_PSpice\17.2.0\PSpice.ini file:

**** INCLUDING DMUX_profile.inc ****
.STMLIB ".\DMUX.stl" 

**** RESUMING DMUX.cir ****
.lib "nomd.lib" 

*Analysis directives: 
.TRAN  0 16 0 
.OPTIONS ADVCONV
.PROBE64 V(alias(*)) I(alias(*)) W(alias(*)) D(alias(*)) NOISE(alias(*)) 
.INC "..\SCHEMATIC1.net" 



**** INCLUDING SCHEMATIC1.net ****
* source DMUX
.EXTERNAL OUTPUT F1
.EXTERNAL OUTPUT F2
U_x1         STIM(1,0) $G_DPWR $G_DGND N15710 IO_STM STIMULUS=x1
U_x2         STIM(1,0) $G_DPWR $G_DGND N15574 IO_STM STIMULUS=x2
U_x3         STIM(1,0) $G_DPWR $G_DGND N15578 IO_STM STIMULUS=x3
U_x4         STIM(1,0) $G_DPWR $G_DGND N15582 IO_STM STIMULUS=x4
X_U2A         N15710 N15710 $G_DPWR $G_DGND 74LS04 PARAMS:
+ IO_LEVEL=0 MNTYMXDLY=0
X_U3         N15582 N15710 N15710 N15574 N15578 N15574 N17837 N17746 M_UN0001
+  N17719 N17643 N17624 M_UN0002 N17191 $G_DPWR $G_DGND 74HC155 PARAMS:
+ IO_LEVEL=0 MNTYMXDLY=0
X_U4         N15582 N15710 N15710 N15574 N15578 N15574 N17106 M_UN0003 M_UN0004
+  M_UN0005 N17127 N17139 N17161 N17176 $G_DPWR $G_DGND 74HC155 PARAMS:
+ IO_LEVEL=0 MNTYMXDLY=0
X_U5A         N17139 N17746 N17837 N17643 F2 $G_DPWR $G_DGND 74HC20 PARAMS:
+ IO_LEVEL=0 MNTYMXDLY=0
X_U7         N17106 N17106 N17176 N17161 N17127 N17719 N17191 N17624 F1 $G_DPWR
+  $G_DGND NAN8

**** RESUMING DMUX.cir ****
.END

* C:\Users\Cristi\Desktop\LAB ASCN 1\DMUX-PSpiceFiles\SCHEMATIC1\DMUX\DMUX.stl written on Wed May 31 14:10:16 2017
* by Stimulus Editor -- Lite Version 17.2.0
;!Stimulus Get
;! x1 Digital x2 Digital x3 Digital x4 Digital
;!Ok
;!Plot Axis_Settings
;!Xrange 0s 70s
;!AutoUniverse
;!XminRes 1ns
;!YminRes 1n
;!Ok
.STIMULUS x4 STIM (1, 1) ;! CLOCKP 2 1 0 0
+   +0s 0
+   +1s 1
+   Repeat Forever
+      +1s 0
+      +1s 1
+   EndRepeat
.STIMULUS x3 STIM (1, 1) ;! CLOCKP 4 2 0 0
+   +0s 0
+   +2s 1
+   Repeat Forever
+      +2s 0
+      +2s 1
+   EndRepeat
.STIMULUS x2 STIM (1, 1) ;! CLOCKP 8 4 0 0
+   +0s 0
+   +4s 1
+   Repeat Forever
+      +4s 0
+      +4s 1
+   EndRepeat
.STIMULUS x1 STIM (1, 1) ;! CLOCKP 16 8 0 0
+   +0s 0
+   +8s 1
+   Repeat Forever
+      +8s 0
+      +8s 1
+   EndRepeat

**** 06/01/17 09:32:51 ******* PSpice Lite (March 2016) ******* ID# 10813 ****

 ** Profile: "SCHEMATIC1-DMUX"  [ C:\Users\Cristi\Desktop\LAB ASCN 1\dmux-pspicefiles\schematic1\dmux.sim ] 


 ****     Digital Gate MODEL PARAMETERS


******************************************************************************




               D_LS04          D0_GATE         D_HC20          D_PLD_GATE      
      TPLHMN    3.600000E-09    0               5.600000E-09    0            
      TPLHTY    9.000000E-09    0              14.000000E-09    0            
      TPLHMX   15.000000E-09    0              28.000000E-09    0            
      TPHLMN    4.000000E-09    0               5.600000E-09    0            
      TPHLTY   10.000000E-09    0              14.000000E-09    0            
      TPHLMX   15.000000E-09    0              28.000000E-09    0            


**** 06/01/17 09:32:51 ******* PSpice Lite (March 2016) ******* ID# 10813 ****

 ** Profile: "SCHEMATIC1-DMUX"  [ C:\Users\Cristi\Desktop\LAB ASCN 1\dmux-pspicefiles\schematic1\dmux.sim ] 


 ****     Digital IO  MODEL PARAMETERS


******************************************************************************




               IO_STM          IO_LS           IO_HC           IO_PLD          
        INLD                                    3.500000E-12                 
        DRVL    0             157              87                            
        DRVH    0             108              87                            
       AtoD1                 AtoD_LS         AtoD_HC                         
       AtoD2                 AtoD_LS_NX      AtoD_HC_NX                      
       AtoD3                 AtoD_LS         AtoD_HC                         
       AtoD4                 AtoD_LS_NX      AtoD_HC_NX                      
       DtoA1 DtoA_STM        DtoA_LS         DtoA_HC                         
       DtoA2 DtoA_STM        DtoA_LS         DtoA_HC                         
       DtoA3 DtoA_STM        DtoA_LS         DtoA_HC_E                       
       DtoA4 DtoA_STM        DtoA_LS         DtoA_HC_E                       
      TSWHL1                    2.724000E-09    2.742000E-09                 
      TSWHL2                    2.724000E-09    2.742000E-09                 
      TSWHL3                    2.724000E-09    2.751000E-09                 
      TSWHL4                    2.724000E-09    2.751000E-09                 
      TSWLH1                    2.104000E-09    2.758000E-09                 
      TSWLH2                    2.104000E-09    2.758000E-09                 
      TSWLH3                    2.104000E-09    2.763000E-09                 
      TSWLH4                    2.104000E-09    2.763000E-09                 
       TPWRT  100.000000E+03  100.000000E+03    2.000000E-09  100.000000E+03 



          JOB CONCLUDED

**** 06/01/17 09:32:51 ******* PSpice Lite (March 2016) ******* ID# 10813 ****

 ** Profile: "SCHEMATIC1-DMUX"  [ C:\Users\Cristi\Desktop\LAB ASCN 1\dmux-pspicefiles\schematic1\dmux.sim ] 


 ****     JOB STATISTICS SUMMARY


******************************************************************************



  Total job time                    =         .13
